# generated using pymatgen
data_TiMo4(HS4)2
_symmetry_space_group_name_H-M   'P 1'
_cell_length_a   6.59365000
_cell_length_b   5.68615000
_cell_length_c   20.00000000
_cell_angle_alpha   90.00000000
_cell_angle_beta   90.00000000
_cell_angle_gamma   90.00000000
_symmetry_Int_Tables_number   1
_chemical_formula_structural   TiMo4(HS4)2
_chemical_formula_sum   'Ti1 Mo4 H2 S8'
_cell_volume   749.84965895
_cell_formula_units_Z   1
loop_
 _symmetry_equiv_pos_site_id
 _symmetry_equiv_pos_as_xyz
  1  'x, y, z'
loop_
 _atom_type_symbol
 _atom_type_oxidation_number
  Ti4+  4.0
  Mo4+  4.0
  H+  1.0
  S2-  -2.0
loop_
 _atom_site_type_symbol
 _atom_site_label
 _atom_site_symmetry_multiplicity
 _atom_site_fract_x
 _atom_site_fract_y
 _atom_site_fract_z
 _atom_site_occupancy
  H+  H1  1  0.882141  0.524083  0.204166  1.0
  H+  H2  1  0.960142  0.515712  0.230662  1.0
  Ti4+  Ti3  1  0.250000  0.162689  0.131546  1.0
  Mo4+  Mo4  1  0.000362  0.005698  0.000861  1.0
  Mo4+  Mo5  1  0.499638  0.005698  0.000861  1.0
  Mo4+  Mo6  1  0.250000  0.484637  0.000725  1.0
  Mo4+  Mo7  1  0.750000  0.507768  0.998541  1.0
  S2-  S8  1  0.250000  0.829774  0.925765  1.0
  S2-  S9  1  0.750000  0.840732  0.922582  1.0
  S2-  S10  1  0.250000  0.805995  0.085761  1.0
  S2-  S11  1  0.750000  0.838993  0.076926  1.0
  S2-  S12  1  0.516033  0.340800  0.083883  1.0
  S2-  S13  1  0.983967  0.340800  0.083883  1.0
  S2-  S14  1  0.500056  0.334759  0.922632  1.0
  S2-  S15  1  0.999944  0.334759  0.922632  1.0
